9
com2xyz_EtOH.xyz
 C  -0.36153710   0.36152967  -0.00001398
 H  -0.00403976  -0.64698183   0.00044036
 H  -0.00571071   0.86646915   0.87367000
 H  -1.43153661   0.36064829  -0.00053387
 C   0.15180934   1.08756540  -1.25737135
 H   1.22180885   1.08844678  -1.25685146
 H  -0.20401706   0.58262592  -2.13105533
 O  -0.32596748   2.43538918  -1.25797855
 H  -0.00595931   2.88798288  -2.04178574
